%mem=1600mb
%nprocs=4
#N wB97XD/6-31G(d) opt=ModRedundant FREQ

CH2O3 ModRedundant - Minimalist working constrained optimisation

0 1
C1 0.0 0.0 0.0
O2 0.0 1.085965 -0.773161
H3 0.0 1.850217 -0.183876
O4 0.0 -1.085965 -0.773161
H5 0.0 -1.850217 -0.183876
O6 0.0 0.0 1.208894
C7 3.284112975219463 5.198271954183426 4.338959847338058
O8 3.7360948652194623 4.820880134183426 5.534947187338059
H9 3.195458865219463 5.272295574183426 6.194700747338058
O10 4.003701205219463 4.597436574183425 3.3911795373380587
H11 3.651394205219463 4.891602734183426 2.5422484573380584
O12 2.368195025219463 5.963036984183425 4.144914897338058
C13 -2.6543591137599414 -6.829920556759907 2.5416356035925656
O14 -2.751223373759941 -7.079861206759907 1.2357853435925656
H15 -3.0984576237599413 -7.975836156759907 1.1463695835925656
O16 -2.1767595737599414 -5.597561616759907 2.7156702135925657
H17 -2.1197127437599415 -5.450362616759907 3.6677290535925655
O18 -2.9520128937599415 -7.597962126759907 3.426474043592566
C19 5.361315411393294 5.8536332133898075 -7.377819695932595
O20 4.250319381393294 6.118923733389807 -6.6905012259325956
H21 3.5532675313932938 6.285370103389807 -7.336838785932596
O22 6.356595391393294 5.6159740833898075 -6.523399525932596
H23 7.141843281393294 5.428467723389807 -7.052138635932596
O24 5.451780681393294 5.832031353389808 -8.583130485932596
C25 -5.285674499072589 7.176521918302326 -3.842172394770071
O26 -5.185787469072589 5.961618198302326 -4.381736524770071
H27 -5.134124549072589 5.333253618302326 -3.6511019947700714
O28 -5.360140189072589 8.082231458302326 -4.817489264770071
H29 -5.431178649072589 8.946256528302326 -4.393517384770071
O30 -5.305548569072589 7.418245818302326 -2.657858554770071
C31 2.624271486995225 -5.409228336522267 5.0675693973776195
O32 1.9580686569952248 -4.820174606522267 6.0606894373776194
H33 1.3024361869952248 -4.240467136522266 5.653966887377619
O34 3.545315526995225 -6.223611596522266 5.58289036737762
H35 4.006714066995225 -6.631578236522267 4.8399149173776195
O36 2.425040006995225 -5.233068706522267 3.8882902473776193
C37 7.1408490394462785 2.1925763316424174 -4.613182660818124
O38 7.118086039446278 2.500173711642417 -3.316277260818124
H39 7.179582459446278 1.6691700016424174 -2.8294621508181237
O40 7.057855329446278 3.3140737316424174 -5.329041270818124
H41 7.076964169446279 3.0558552416424174 -6.258716480818124
O42 7.223528229446279 1.0753290216424174 -5.067437320818124
C43 -0.3387132087494029 4.442158765624123 -7.411135682902413
O44 -0.416505308749403 4.379858845624123 -8.740483272902413
H45 0.285768811250597 4.942276065624124 -9.089533202902414
O46 -1.293740618749403 3.6773237156241234 -6.881940152902414
H47 -1.208824178749403 3.745329175624123 -5.923033282902414
O48 0.4687313712505971 5.088801895624123 -6.785587432902414
C49 5.531459012177542 -4.5067834883882725 -5.557022163279827
O50 4.657590122177543 -5.116685118388272 -4.756103283279827
H51 4.018624842177543 -5.562639848388272 -5.325476353279827
O52 6.438039852177543 -3.8740511283882726 -4.812133683279827
H53 7.052072852177543 -3.4454974383882724 -5.420938363279827
O54 5.505885252177542 -4.524632248388272 -6.765513833279827
C55 4.6661790382447546 -0.0619708209955636 2.542253444519268
O56 4.493437698244755 -0.4513500209955636 3.805440754519268
H57 4.102264478244755 -1.3331002109955636 3.776491584519268
O58 5.206749428244755 1.1565380690044365 2.5314069345192682
H59 5.317572058244755 1.4063452490044364 1.6058516145192683
O60 4.378615178244755 -0.7101734009955636 1.5631900445192681


0 1 2 3 4
7 8 9 =106.916 B
7 8 9 F 
7 10 11 =106.916 B
7 10 11 F 
12 7 8 =125.449 B
12 7 8 F 
8 7 10 =109.101 B
8 7 10 F 
12 7 10 =125.449 B
12 7 10 F 
7 12 =1.209 B 
7 12 F  
7 8 =1.333 B 
7 8 F  
7 10 =1.333 B 
7 10 F  
8 9 =0.965 B 
8 9 F  
10 11 =0.965 B 
10 11 F  
13 14 15 =106.916 B
13 14 15 F 
13 16 17 =106.916 B
13 16 17 F 
18 13 14 =125.449 B
18 13 14 F 
14 13 16 =109.101 B
14 13 16 F 
18 13 16 =125.449 B
18 13 16 F 
13 18 =1.209 B 
13 18 F  
13 14 =1.333 B 
13 14 F  
13 16 =1.333 B 
13 16 F  
14 15 =0.965 B 
14 15 F  
16 17 =0.965 B 
16 17 F  
19 20 21 =106.916 B
19 20 21 F 
19 22 23 =106.916 B
19 22 23 F 
24 19 20 =125.449 B
24 19 20 F 
20 19 22 =109.101 B
20 19 22 F 
24 19 22 =125.449 B
24 19 22 F 
19 24 =1.209 B 
19 24 F  
19 20 =1.333 B 
19 20 F  
19 22 =1.333 B 
19 22 F  
20 21 =0.965 B 
20 21 F  
22 23 =0.965 B 
22 23 F  
25 26 27 =106.916 B
25 26 27 F 
25 28 29 =106.916 B
25 28 29 F 
30 25 26 =125.449 B
30 25 26 F 
26 25 28 =109.101 B
26 25 28 F 
30 25 28 =125.449 B
30 25 28 F 
25 30 =1.209 B 
25 30 F  
25 26 =1.333 B 
25 26 F  
25 28 =1.333 B 
25 28 F  
26 27 =0.965 B 
26 27 F  
28 29 =0.965 B 
28 29 F  
31 32 33 =106.916 B
31 32 33 F 
31 34 35 =106.916 B
31 34 35 F 
36 31 32 =125.449 B
36 31 32 F 
32 31 34 =109.101 B
32 31 34 F 
36 31 34 =125.449 B
36 31 34 F 
31 36 =1.209 B 
31 36 F  
31 32 =1.333 B 
31 32 F  
31 34 =1.333 B 
31 34 F  
32 33 =0.965 B 
32 33 F  
34 35 =0.965 B 
34 35 F  
37 38 39 =106.916 B
37 38 39 F 
37 40 41 =106.916 B
37 40 41 F 
42 37 38 =125.449 B
42 37 38 F 
38 37 40 =109.101 B
38 37 40 F 
42 37 40 =125.449 B
42 37 40 F 
37 42 =1.209 B 
37 42 F  
37 38 =1.333 B 
37 38 F  
37 40 =1.333 B 
37 40 F  
38 39 =0.965 B 
38 39 F  
40 41 =0.965 B 
40 41 F  
43 44 45 =106.916 B
43 44 45 F 
43 46 47 =106.916 B
43 46 47 F 
48 43 44 =125.449 B
48 43 44 F 
44 43 46 =109.101 B
44 43 46 F 
48 43 46 =125.449 B
48 43 46 F 
43 48 =1.209 B 
43 48 F  
43 44 =1.333 B 
43 44 F  
43 46 =1.333 B 
43 46 F  
44 45 =0.965 B 
44 45 F  
46 47 =0.965 B 
46 47 F  
49 50 51 =106.916 B
49 50 51 F 
49 52 53 =106.916 B
49 52 53 F 
54 49 50 =125.449 B
54 49 50 F 
50 49 52 =109.101 B
50 49 52 F 
54 49 52 =125.449 B
54 49 52 F 
49 54 =1.209 B 
49 54 F  
49 50 =1.333 B 
49 50 F  
49 52 =1.333 B 
49 52 F  
50 51 =0.965 B 
50 51 F  
52 53 =0.965 B 
52 53 F  
55 56 57 =106.916 B
55 56 57 F 
55 58 59 =106.916 B
55 58 59 F 
60 55 56 =125.449 B
60 55 56 F 
56 55 58 =109.101 B
56 55 58 F 
60 55 58 =125.449 B
60 55 58 F 
55 60 =1.209 B 
55 60 F  
55 56 =1.333 B 
55 56 F  
55 58 =1.333 B 
55 58 F  
56 57 =0.965 B 
56 57 F  
58 59 =0.965 B 
58 59 F  
